*SPEF "1481-1998"
*DESIGN "i2c_master_top"
*DATE "Tue May  7 13:47:38 2024"
*VENDOR "Synopsys, Inc."
*PROGRAM "icc2 /eda/synopsys/icc2/V-2023.12/linux64/nwtn/bin/icc2_exec"
*VERSION "V-2023.12 Nov 23, 2023"
*DESIGN_FLOW "ICC2 SPEF DR"
*DIVIDER /
*DELIMITER :
*BUS_DELIMITER [ ]
*T_UNIT 1 NS
*C_UNIT 1 FF
*R_UNIT 1 OHM
*L_UNIT 1 HENRY

// XY_UNIT 1 UM
// PARASITIC_TECH maxTLU at -40.000 degree

*NAME_MAP
*1 wb_clk_i
*2 wb_rst_i
*3 arst_i
*4 wb_adr_i[2]
*5 wb_adr_i[1]
*6 wb_adr_i[0]
*7 wb_dat_i[7]
*8 wb_dat_i[6]
*9 wb_dat_i[5]
*10 wb_dat_i[4]
*11 wb_dat_i[3]
*12 wb_dat_i[2]
*13 wb_dat_i[1]
*14 wb_dat_i[0]
*15 wb_dat_o[7]
*16 wb_dat_o[6]
*17 wb_dat_o[5]
*18 wb_dat_o[4]
*19 wb_dat_o[3]
*20 wb_dat_o[2]
*21 wb_dat_o[1]
*22 wb_dat_o[0]
*23 wb_we_i
*24 wb_stb_i
*25 wb_cyc_i
*26 wb_ack_o
*27 wb_inta_o
*28 scl_pad_i
*29 scl_pad_o
*30 scl_padoen_o
*31 sda_pad_i
*32 sda_pad_o
*33 sda_padoen_o
*34 VDD
*35 VSS
*36 wb_ack_o_reg
*37 ctr_reg_7_
*38 ctr_reg_6_
*39 ctr_reg_5_
*40 ctr_reg_4_
*41 ctr_reg_3_
*42 ctr_reg_2_
*43 ctr_reg_1_
*44 ctr_reg_0_
*45 txr_reg_7_
*46 txr_reg_6_
*47 txr_reg_5_
*48 txr_reg_4_
*49 txr_reg_3_
*50 txr_reg_2_
*51 txr_reg_1_
*52 txr_reg_0_
*53 prer_reg_15_
*54 prer_reg_14_
*55 prer_reg_13_
*56 prer_reg_12_
*57 prer_reg_11_
*58 prer_reg_10_
*59 prer_reg_9_
*60 prer_reg_8_
*61 prer_reg_7_
*62 prer_reg_6_
*63 prer_reg_5_
*64 prer_reg_4_
*65 prer_reg_3_
*66 prer_reg_2_
*67 prer_reg_1_
*68 prer_reg_0_
*69 cr_reg_3_
*70 cr_reg_7_
*71 cr_reg_6_
*72 wb_dat_o_reg_6_
*73 cr_reg_5_
*74 cr_reg_4_
*75 wb_dat_o_reg_4_
*76 wb_dat_o_reg_3_
*77 cr_reg_2_
*78 wb_dat_o_reg_2_
*79 cr_reg_1_
*80 cr_reg_0_
*81 al_reg
*82 wb_dat_o_reg_5_
*83 rxack_reg
*84 wb_dat_o_reg_7_
*85 tip_reg
*86 wb_dat_o_reg_1_
*87 irq_flag_reg
*88 wb_dat_o_reg_0_
*89 wb_inta_o_reg
*90 U34
*91 U35
*92 U36
*93 U37
*94 U38
*95 U39
*96 U40
*97 U41
*98 U42
*99 U43
*100 U44
*101 U45
*102 U46
*103 U47
*104 U48
*105 U49
*106 U50
*107 U51
*108 U52
*109 U53
*110 U54
*111 U55
*112 U56
*113 U57
*114 U58
*115 U59
*116 U60
*117 U61
*118 U62
*119 U63
*120 U64
*121 U65
*122 U66
*123 U67
*124 U68
*125 U69
*126 U70
*127 U72
*128 U73
*129 U74
*130 U75
*131 U76
*132 U77
*133 U78
*134 U79
*135 U81
*136 U82
*137 U83
*138 U84
*139 U85
*140 U86
*141 U87
*142 U88
*143 U89
*144 U90
*145 U91
*146 U92
*147 U93
*148 U94
*149 U95
*150 U96
*151 U97
*152 U98
*153 U99
*154 U100
*155 U101
*156 U102
*157 U103
*158 U104
*159 U105
*160 U106
*161 U107
*162 U108
*163 U110
*164 U111
*165 U112
*166 U113
*167 U114
*168 U115
*169 byte_controller/bit_controller/ctmTdsLR_1_286
*170 HFSINV_1712_1
*171 U119
*172 U120
*173 U121
*174 U122
*175 U123
*176 byte_controller/bit_controller/copt_h_inst_742
*177 byte_controller/bit_controller/copt_h_inst_743
*178 U125
*179 U126
*180 U127
*181 U128
*182 U129
*183 U130
*184 U131
*185 U132
*186 U133
*187 U134
*188 U135
*189 U136
*190 U137
*191 U138
*192 U139
*193 U140
*194 U141
*195 U142
*196 U143
*197 U144
*198 U145
*199 U146
*200 U147
*201 U148
*202 U149
*203 U150
*204 byte_controller/ld_reg
*205 byte_controller/sr_reg_1_
*206 byte_controller/sr_reg_2_
*207 byte_controller/sr_reg_3_
*208 byte_controller/sr_reg_4_
*209 byte_controller/sr_reg_5_
*210 byte_controller/sr_reg_6_
*211 byte_controller/sr_reg_7_
*212 byte_controller/core_txd_reg
*213 byte_controller/shift_reg
*214 byte_controller/sr_reg_0_
*215 byte_controller/dcnt_reg_0_
*216 byte_controller/dcnt_reg_1_
*217 byte_controller/dcnt_reg_2_
*218 byte_controller/c_state_reg_1_
*219 byte_controller/c_state_reg_4_
*220 byte_controller/cmd_ack_reg
*221 byte_controller/core_cmd_reg_1_
*222 byte_controller/core_cmd_reg_0_
*223 byte_controller/c_state_reg_0_
*224 byte_controller/c_state_reg_2_
*225 byte_controller/c_state_reg_3_
*226 byte_controller/core_cmd_reg_2_
*227 byte_controller/core_cmd_reg_3_
*228 byte_controller/ack_out_reg
*229 byte_controller/U31
*230 byte_controller/U32
*231 byte_controller/U33
*232 byte_controller/U34
*233 byte_controller/U35
*234 byte_controller/U36
*235 byte_controller/U37
*236 byte_controller/U38
*237 byte_controller/U39
*238 byte_controller/U40
*239 byte_controller/ZCTSBUF_1669_578
*240 byte_controller/ZCTSBUF_2668_579
*241 byte_controller/U42
*242 byte_controller/U43
*243 byte_controller/bit_controller/ctmTdsLR_1_291
*244 byte_controller/U45
*245 byte_controller/U46
*246 byte_controller/U47
*247 byte_controller/U48
*248 byte_controller/U49
*249 byte_controller/U50
*250 byte_controller/U51
*251 byte_controller/bit_controller/ctmTdsLR_1_295
*252 byte_controller/ctmTdsLR_1_296
*253 byte_controller/U54
*254 byte_controller/U55
*255 byte_controller/U56
*256 byte_controller/U57
*257 byte_controller/U59
*258 byte_controller/U60
*259 byte_controller/U61
*260 byte_controller/U62
*261 byte_controller/U63
*262 byte_controller/U64
*263 byte_controller/U65
*264 byte_controller/U66
*265 byte_controller/U67
*266 byte_controller/U68
*267 byte_controller/U69
*268 byte_controller/U70
*269 byte_controller/U71
*270 byte_controller/U72
*271 byte_controller/U73
*272 byte_controller/U74
*273 byte_controller/U75
*274 byte_controller/U76
*275 byte_controller/U77
*276 byte_controller/U78
*277 byte_controller/U79
*278 byte_controller/HFSBUF_504_2
*279 byte_controller/HFSBUF_146_3
*280 byte_controller/U6
*281 byte_controller/U7
*282 byte_controller/U8
*283 byte_controller/U9
*284 byte_controller/U10
*285 byte_controller/U11
*286 byte_controller/U12
*287 HFSBUF_295_4
*288 byte_controller/U14
*289 byte_controller/U15
*290 byte_controller/U16
*291 byte_controller/bit_controller/ctmTdsLR_2_292
*292 byte_controller/U19
*293 byte_controller/U20
*294 byte_controller/U21
*295 byte_controller/U22
*296 byte_controller/U23
*297 byte_controller/U24
*298 byte_controller/U25
*299 byte_controller/U26
*300 byte_controller/U27
*301 byte_controller/U28
*302 byte_controller/U29
*303 byte_controller/U30
*304 byte_controller/U58
*305 byte_controller/U80
*306 byte_controller/U81
*307 byte_controller/U82
*308 byte_controller/bit_controller/cSDA_reg_0_
*309 byte_controller/bit_controller/cSDA_reg_1_
*310 byte_controller/bit_controller/cSCL_reg_0_
*311 byte_controller/bit_controller/cSCL_reg_1_
*312 byte_controller/bit_controller/filter_cnt_reg_0_
*313 byte_controller/bit_controller/filter_cnt_reg_7_
*314 byte_controller/bit_controller/filter_cnt_reg_1_
*315 byte_controller/bit_controller/filter_cnt_reg_2_
*316 byte_controller/bit_controller/filter_cnt_reg_3_
*317 byte_controller/bit_controller/filter_cnt_reg_4_
*318 byte_controller/bit_controller/filter_cnt_reg_5_
*319 byte_controller/bit_controller/filter_cnt_reg_6_
*320 byte_controller/bit_controller/filter_cnt_reg_8_
*321 byte_controller/bit_controller/filter_cnt_reg_9_
*322 byte_controller/bit_controller/filter_cnt_reg_10_
*323 byte_controller/bit_controller/filter_cnt_reg_11_
*324 byte_controller/bit_controller/filter_cnt_reg_12_
*325 byte_controller/bit_controller/filter_cnt_reg_13_
*326 byte_controller/bit_controller/fSCL_reg_0_
*327 byte_controller/bit_controller/fSCL_reg_1_
*328 byte_controller/bit_controller/fSCL_reg_2_
*329 byte_controller/bit_controller/fSDA_reg_0_
*330 byte_controller/bit_controller/fSDA_reg_1_
*331 byte_controller/bit_controller/fSDA_reg_2_
*332 byte_controller/bit_controller/sSCL_reg
*333 byte_controller/bit_controller/dSCL_reg
*334 byte_controller/bit_controller/sSDA_reg
*335 byte_controller/bit_controller/dSDA_reg
*336 byte_controller/bit_controller/sta_condition_reg
*337 byte_controller/bit_controller/sto_condition_reg
*338 byte_controller/bit_controller/busy_reg
*339 byte_controller/bit_controller/dout_reg
*340 byte_controller/bit_controller/c_state_reg_0_
*341 byte_controller/bit_controller/scl_oen_reg
*342 byte_controller/bit_controller/dscl_oen_reg
*343 byte_controller/bit_controller/slave_wait_reg
*344 byte_controller/bit_controller/cnt_reg_0_
*345 byte_controller/bit_controller/clk_en_reg
*346 byte_controller/bit_controller/cmd_stop_reg
*347 byte_controller/bit_controller/c_state_reg_1_
*348 byte_controller/bit_controller/c_state_reg_2_
*349 byte_controller/bit_controller/c_state_reg_3_
*350 byte_controller/bit_controller/c_state_reg_4_
*351 byte_controller/bit_controller/c_state_reg_13_
*352 byte_controller/bit_controller/c_state_reg_14_
*353 byte_controller/bit_controller/c_state_reg_15_
*354 byte_controller/bit_controller/sda_chk_reg
*355 byte_controller/bit_controller/c_state_reg_16_
*356 byte_controller/bit_controller/c_state_reg_5_
*357 byte_controller/bit_controller/c_state_reg_6_
*358 byte_controller/bit_controller/c_state_reg_7_
*359 byte_controller/bit_controller/c_state_reg_8_
*360 byte_controller/bit_controller/c_state_reg_9_
*361 byte_controller/bit_controller/c_state_reg_10_
*362 byte_controller/bit_controller/c_state_reg_11_
*363 byte_controller/bit_controller/c_state_reg_12_
*364 byte_controller/bit_controller/sda_oen_reg
*365 byte_controller/bit_controller/al_reg
*366 byte_controller/bit_controller/cmd_ack_reg
*367 byte_controller/bit_controller/cnt_reg_15_
*368 byte_controller/bit_controller/cnt_reg_1_
*369 byte_controller/bit_controller/cnt_reg_2_
*370 byte_controller/bit_controller/cnt_reg_3_
*371 byte_controller/bit_controller/cnt_reg_4_
*372 byte_controller/bit_controller/cnt_reg_5_
*373 byte_controller/bit_controller/cnt_reg_6_
*374 byte_controller/bit_controller/cnt_reg_7_
*375 byte_controller/bit_controller/cnt_reg_8_
*376 byte_controller/bit_controller/cnt_reg_9_
*377 byte_controller/bit_controller/cnt_reg_10_
*378 byte_controller/bit_controller/cnt_reg_11_
*379 byte_controller/bit_controller/cnt_reg_12_
*380 byte_controller/bit_controller/cnt_reg_13_
*381 byte_controller/bit_controller/cnt_reg_14_
*382 byte_controller/ctmTdsLR_1_293
*383 byte_controller/bit_controller/U4
*384 byte_controller/bit_controller/U6
*385 byte_controller/bit_controller/U8
*386 byte_controller/bit_controller/U9
*387 byte_controller/bit_controller/U11
*388 byte_controller/bit_controller/U13
*389 byte_controller/bit_controller/U15
*390 byte_controller/bit_controller/U17
*391 byte_controller/bit_controller/U19
*392 byte_controller/bit_controller/U21
*393 byte_controller/bit_controller/U23
*394 byte_controller/bit_controller/U25
*395 byte_controller/bit_controller/U27
*396 byte_controller/bit_controller/U29
*397 byte_controller/bit_controller/U31
*398 byte_controller/bit_controller/U33
*399 byte_controller/bit_controller/U35
*400 byte_controller/bit_controller/U37
*401 byte_controller/bit_controller/U39
*402 byte_controller/bit_controller/U44
*403 byte_controller/bit_controller/U45
*404 byte_controller/bit_controller/ctmTdsLR_1_294
*405 byte_controller/ctmTdsLR_2_297
*406 byte_controller/bit_controller/U49
*407 byte_controller/bit_controller/U51
*408 byte_controller/bit_controller/U53
*409 byte_controller/bit_controller/U55
*410 byte_controller/bit_controller/U56
*411 byte_controller/bit_controller/U60
*412 byte_controller/bit_controller/U61
*413 byte_controller/bit_controller/U62
*414 byte_controller/bit_controller/U63
*415 byte_controller/bit_controller/U67
*416 byte_controller/bit_controller/U68
*417 byte_controller/bit_controller/U69
*418 byte_controller/bit_controller/U70
*419 byte_controller/bit_controller/U71
*420 byte_controller/bit_controller/U74
*421 byte_controller/bit_controller/U75
*422 byte_controller/bit_controller/ctmTdsLR_1_287
*423 byte_controller/bit_controller/U78
*424 byte_controller/bit_controller/U79
*425 byte_controller/bit_controller/U82
*426 ZCTSINV_3892_580
*427 byte_controller/bit_controller/U89
*428 byte_controller/bit_controller/U92
*429 byte_controller/bit_controller/U93
*430 byte_controller/bit_controller/U94
*431 byte_controller/bit_controller/U100
*432 byte_controller/bit_controller/U101
*433 byte_controller/bit_controller/U102
*434 byte_controller/bit_controller/U103
*435 byte_controller/bit_controller/U104
*436 byte_controller/bit_controller/U105
*437 ZCTSINV_4927_581
*438 byte_controller/bit_controller/U110
*439 byte_controller/bit_controller/U111
*440 byte_controller/bit_controller/U112
*441 byte_controller/bit_controller/U113
*442 byte_controller/bit_controller/U114
*443 byte_controller/bit_controller/U115
*444 byte_controller/bit_controller/U116
*445 byte_controller/bit_controller/U118
*446 byte_controller/bit_controller/U120
*447 ctmTdsLR_1_740
*448 ctmTdsLR_2_741
*449 byte_controller/bit_controller/ctmTdsLR_1_734
*450 byte_controller/bit_controller/ctmTdsLR_1_736
*451 byte_controller/bit_controller/ctmTdsLR_2_737
*452 byte_controller/bit_controller/U125
*453 byte_controller/bit_controller/U126
*454 byte_controller/bit_controller/U127
*455 byte_controller/bit_controller/U128
*456 byte_controller/ctmTdsLR_1_288
*457 byte_controller/ctmTdsLR_2_289
*458 byte_controller/bit_controller/ctmTdsLR_1_290
*459 byte_controller/bit_controller/U137
*460 byte_controller/bit_controller/U141
*461 byte_controller/bit_controller/U142
*462 byte_controller/bit_controller/U143
*463 byte_controller/bit_controller/U145
*464 byte_controller/bit_controller/copt_h_inst_744
*465 byte_controller/bit_controller/ctmTdsLR_3_738
*466 byte_controller/bit_controller/U152
*467 byte_controller/bit_controller/U153
*468 byte_controller/bit_controller/U155
*469 byte_controller/bit_controller/U156
*470 byte_controller/bit_controller/U161
*471 byte_controller/bit_controller/U166
*472 byte_controller/bit_controller/U171
*473 byte_controller/bit_controller/U172
*474 byte_controller/bit_controller/U173
*475 byte_controller/bit_controller/U174
*476 byte_controller/bit_controller/U175
*477 byte_controller/bit_controller/U176
*478 byte_controller/bit_controller/U177
*479 byte_controller/bit_controller/U182
*480 byte_controller/bit_controller/U183
*481 byte_controller/bit_controller/U184
*482 byte_controller/bit_controller/U185
*483 HFSBUF_877_5
*484 ZCTSINV_5064_582
*485 byte_controller/bit_controller/U18
*486 byte_controller/bit_controller/U20
*487 byte_controller/bit_controller/U22
*488 byte_controller/bit_controller/ctmTdsLR_1_733
*489 byte_controller/bit_controller/U26
*490 byte_controller/bit_controller/U28
*491 byte_controller/bit_controller/U30
*492 byte_controller/bit_controller/U32
*493 byte_controller/bit_controller/U34
*494 byte_controller/bit_controller/U36
*495 byte_controller/bit_controller/U38
*496 byte_controller/bit_controller/U40
*497 byte_controller/bit_controller/U41
*498 byte_controller/bit_controller/U42
*499 copt_h_inst_745
*500 byte_controller/bit_controller/copt_h_inst_746
*501 byte_controller/bit_controller/U48
*502 byte_controller/bit_controller/U50
*503 byte_controller/bit_controller/U52
*504 byte_controller/bit_controller/U54
*505 byte_controller/bit_controller/ctmTdsLR_1_735
*506 byte_controller/bit_controller/U58
*507 byte_controller/bit_controller/U59
*508 byte_controller/bit_controller/U65
*509 byte_controller/bit_controller/ctmTdsLR_1_739
*510 byte_controller/bit_controller/U73
*511 byte_controller/bit_controller/U76
*512 byte_controller/bit_controller/U80
*513 byte_controller/bit_controller/U81
*514 byte_controller/bit_controller/U83
*515 byte_controller/bit_controller/U84
*516 byte_controller/bit_controller/U85
*517 byte_controller/bit_controller/U86
*518 byte_controller/bit_controller/U87
*519 byte_controller/bit_controller/U90
*520 byte_controller/bit_controller/U95
*521 byte_controller/bit_controller/U96
*522 byte_controller/bit_controller/U97
*523 byte_controller/bit_controller/U98
*524 byte_controller/bit_controller/U99
*525 byte_controller/bit_controller/U106
*526 byte_controller/bit_controller/U108
*527 byte_controller/bit_controller/sub_260/U1
*528 byte_controller/bit_controller/sub_260/U2
*529 byte_controller/bit_controller/sub_260/U3
*530 byte_controller/bit_controller/sub_260/U4
*531 byte_controller/bit_controller/sub_260/U5
*532 byte_controller/bit_controller/sub_260/U6
*533 byte_controller/bit_controller/sub_260/U7
*534 byte_controller/bit_controller/sub_260/U8
*535 byte_controller/bit_controller/sub_260/U9
*536 byte_controller/bit_controller/sub_260/U10
*537 byte_controller/bit_controller/sub_260/U11
*538 byte_controller/bit_controller/sub_260/U12
*539 byte_controller/bit_controller/sub_260/U13
*540 byte_controller/bit_controller/sub_260/U14
*541 byte_controller/bit_controller/sub_260/U15
*542 byte_controller/bit_controller/sub_260/U16
*543 byte_controller/bit_controller/sub_260/U17
*544 byte_controller/bit_controller/sub_260/U18
*545 byte_controller/bit_controller/sub_260/U19
*546 byte_controller/bit_controller/sub_260/U20
*547 byte_controller/bit_controller/sub_260/U21
*548 byte_controller/bit_controller/sub_260/U22
*549 byte_controller/bit_controller/sub_260/U23
*550 byte_controller/bit_controller/sub_260/U24
*551 byte_controller/bit_controller/sub_260/U25
*552 byte_controller/bit_controller/sub_260/U26
*553 byte_controller/bit_controller/sub_260/U27
*554 byte_controller/bit_controller/sub_260/U28
*555 byte_controller/bit_controller/sub_260/U29
*556 byte_controller/bit_controller/sub_260/U30
*557 byte_controller/bit_controller/sub_260/U31
*558 byte_controller/bit_controller/sub_260/U32
*559 byte_controller/bit_controller/sub_260/U33
*560 byte_controller/bit_controller/sub_260/U34
*561 byte_controller/bit_controller/sub_260/U35
*562 byte_controller/bit_controller/sub_260/U36
*563 byte_controller/bit_controller/sub_260/U37
*564 byte_controller/bit_controller/sub_228/U1
*565 byte_controller/bit_controller/sub_228/U2
*566 byte_controller/bit_controller/sub_228/U3
*567 byte_controller/bit_controller/sub_228/U4
*568 byte_controller/bit_controller/sub_228/U5
*569 byte_controller/bit_controller/sub_228/U6
*570 byte_controller/bit_controller/sub_228/U7
*571 byte_controller/bit_controller/sub_228/U8
*572 byte_controller/bit_controller/sub_228/U9
*573 byte_controller/bit_controller/sub_228/U10
*574 byte_controller/bit_controller/sub_228/U11
*575 byte_controller/bit_controller/sub_228/U12
*576 byte_controller/bit_controller/sub_228/U13
*577 byte_controller/bit_controller/sub_228/U14
*578 byte_controller/bit_controller/sub_228/U15
*579 byte_controller/bit_controller/sub_228/U16
*580 byte_controller/bit_controller/sub_228/U17
*581 byte_controller/bit_controller/sub_228/U18
*582 byte_controller/bit_controller/sub_228/U19
*583 byte_controller/bit_controller/sub_228/U20
*584 byte_controller/bit_controller/sub_228/U21
*585 byte_controller/bit_controller/sub_228/U22
*586 byte_controller/bit_controller/sub_228/U23
*587 byte_controller/bit_controller/sub_228/U24
*588 byte_controller/bit_controller/sub_228/U25
*589 byte_controller/bit_controller/sub_228/U26
*590 byte_controller/bit_controller/sub_228/U27
*591 byte_controller/bit_controller/sub_228/U28
*592 byte_controller/bit_controller/sub_228/U29
*593 byte_controller/bit_controller/sub_228/U30
*594 byte_controller/bit_controller/sub_228/U31
*595 byte_controller/bit_controller/sub_228/U32
*596 byte_controller/bit_controller/sub_228/U33
*597 byte_controller/bit_controller/sub_228/U34
*598 byte_controller/bit_controller/sub_228/U35
*599 byte_controller/bit_controller/sub_228/U36
*600 byte_controller/bit_controller/sub_228/U37
*601 byte_controller/bit_controller/sub_228/U38
*602 byte_controller/bit_controller/sub_228/U39
*603 byte_controller/bit_controller/sub_228/U40
*604 byte_controller/bit_controller/sub_228/U41
*605 byte_controller/bit_controller/sub_228/U42
*606 byte_controller/bit_controller/sub_228/U43
*607 copt_h_inst_747
*608 byte_controller/bit_controller/copt_h_inst_748
*609 copt_h_inst_749
*610 byte_controller/copt_h_inst_750
*611 byte_controller/bit_controller/copt_h_inst_751
*612 byte_controller/bit_controller/copt_h_inst_752
*613 copt_h_inst_753
*614 byte_controller/ropt_h_inst_939
*615 copt_h_inst_755
*616 copt_h_inst_756
*617 copt_h_inst_757
*618 copt_h_inst_758
*619 copt_h_inst_759
*620 byte_controller/bit_controller/copt_h_inst_760
*621 copt_h_inst_761
*622 byte_controller/bit_controller/copt_h_inst_762
*623 byte_controller/copt_h_inst_763
*624 copt_h_inst_764
*625 copt_h_inst_765
*626 copt_h_inst_766
*627 copt_h_inst_767
*628 byte_controller/copt_h_inst_768
*629 copt_h_inst_769
*630 copt_h_inst_770
*631 copt_h_inst_771
*632 copt_h_inst_772
*633 copt_h_inst_773
*634 byte_controller/copt_h_inst_774
*635 byte_controller/bit_controller/copt_h_inst_775
*636 copt_h_inst_777
*637 copt_h_inst_778
*638 byte_controller/bit_controller/copt_h_inst_779
*639 byte_controller/bit_controller/copt_h_inst_780
*640 copt_h_inst_781
*641 byte_controller/copt_h_inst_782
*642 byte_controller/bit_controller/copt_h_inst_783
*643 xofiller!SHFILL3!x180000y180000
*644 copt_h_inst_786
*645 copt_h_inst_787
*646 copt_h_inst_788
*647 copt_h_inst_789
*648 copt_h_inst_790
*649 copt_h_inst_791
*650 byte_controller/bit_controller/copt_h_inst_792
*651 xofiller!SHFILL3!x189600y180000
*652 copt_h_inst_794
*653 copt_h_inst_795
*654 copt_h_inst_796
*655 byte_controller/bit_controller/copt_h_inst_797
*656 xofiller!SHFILL3!x327200y180000
*657 xofiller!SHFILL1!x336800y180000
*658 copt_h_inst_799
*659 byte_controller/copt_h_inst_800
*660 byte_controller/copt_h_inst_801
*661 copt_h_inst_802
*662 copt_h_inst_803
*663 copt_h_inst_804
*664 byte_controller/copt_h_inst_805
*665 byte_controller/bit_controller/copt_h_inst_806
*666 byte_controller/copt_h_inst_807
*667 byte_controller/bit_controller/copt_h_inst_808
*668 copt_h_inst_809
*669 xofiller!SHFILL3!x375200y180000
*670 xofiller!SHFILL2!x384800y180000
*671 xofiller!SHFILL3!x432800y180000
*672 xofiller!SHFILL3!x484000y180000
*673 copt_h_inst_812
*674 byte_controller/bit_controller/copt_h_inst_813
*675 byte_controller/bit_controller/copt_h_inst_814
*676 byte_controller/bit_controller/copt_h_inst_815
*677 byte_controller/copt_h_inst_816
*678 byte_controller/bit_controller/copt_h_inst_817
*679 byte_controller/copt_h_inst_818
*680 byte_controller/bit_controller/copt_h_inst_819
*681 byte_controller/bit_controller/copt_h_inst_820
*682 byte_controller/bit_controller/copt_h_inst_821
*683 byte_controller/copt_h_inst_822
*684 copt_h_inst_823
*685 byte_controller/copt_h_inst_824
*686 xofiller!SHFILL1!x493600y180000
*687 xofiller!SHFILL3!x548000y180000
*688 byte_controller/copt_h_inst_826
*689 byte_controller/bit_controller/copt_h_inst_827
*690 byte_controller/copt_h_inst_828
*691 byte_controller/bit_controller/copt_h_inst_829
*692 byte_controller/bit_controller/copt_h_inst_830
*693 byte_controller/bit_controller/copt_h_inst_831
*694 byte_controller/bit_controller/copt_h_inst_832
*695 byte_controller/bit_controller/copt_h_inst_833
*696 byte_controller/bit_controller/copt_h_inst_834
*697 byte_controller/bit_controller/copt_h_inst_835
*698 byte_controller/bit_controller/copt_h_inst_836
*699 byte_controller/bit_controller/copt_h_inst_837
*700 byte_controller/bit_controller/copt_h_inst_838
*701 xofiller!SHFILL2!x557600y180000
*702 xofiller!SHFILL3!x615200y180000
*703 byte_controller/bit_controller/copt_h_inst_840
*704 byte_controller/bit_controller/copt_h_inst_841
*705 byte_controller/bit_controller/copt_h_inst_842
*706 byte_controller/bit_controller/copt_h_inst_843
*707 xofiller!SHFILL3!x624800y180000
*708 xofiller!SHFILL3!x634400y180000
*709 copt_h_inst_845
*710 byte_controller/bit_controller/copt_h_inst_846
*711 byte_controller/bit_controller/copt_h_inst_847
*712 byte_controller/bit_controller/copt_h_inst_848
*713 byte_controller/bit_controller/copt_h_inst_849
*714 xofiller!SHFILL2!x756000y180000
*715 xofiller!SHFILL3!x781600y180000
*716 copt_h_inst_851
*717 copt_h_inst_852
*718 copt_h_inst_853
*719 copt_h_inst_854
*720 byte_controller/copt_h_inst_855
*721 byte_controller/bit_controller/copt_h_inst_856
*722 copt_h_inst_857
*723 copt_h_inst_858
*724 copt_h_inst_859
*725 copt_h_inst_860
*726 copt_h_inst_861
*727 byte_controller/copt_h_inst_862
*728 copt_h_inst_863
*729 copt_h_inst_864
*730 byte_controller/copt_h_inst_865
*731 byte_controller/copt_h_inst_866
*732 byte_controller/bit_controller/copt_h_inst_867
*733 byte_controller/bit_controller/copt_h_inst_868
*734 byte_controller/bit_controller/copt_h_inst_869
*735 byte_controller/copt_h_inst_870
*736 byte_controller/bit_controller/copt_h_inst_871
*737 byte_controller/bit_controller/copt_h_inst_872
*738 byte_controller/bit_controller/copt_h_inst_873
*739 byte_controller/bit_controller/copt_h_inst_874
*740 byte_controller/bit_controller/copt_h_inst_875
*741 byte_controller/bit_controller/copt_h_inst_876
*742 byte_controller/bit_controller/copt_h_inst_877
*743 xofiller!SHFILL1!x816800y180000
*744 xofiller!SHFILL1!x944800y180000
*745 byte_controller/bit_controller/copt_h_inst_879
*746 byte_controller/bit_controller/copt_h_inst_880
*747 byte_controller/copt_h_inst_881
*748 byte_controller/bit_controller/copt_h_inst_882
*749 byte_controller/bit_controller/copt_h_inst_883
*750 byte_controller/bit_controller/copt_h_inst_884
*751 byte_controller/bit_controller/copt_h_inst_885
*752 byte_controller/bit_controller/copt_h_inst_886
*753 xofiller!SHFILL2!x986400y180000
*754 xofiller!SHFILL3!x1044000y180000
*755 byte_controller/bit_controller/copt_h_inst_888
*756 byte_controller/bit_controller/copt_h_inst_889
*757 byte_controller/bit_controller/copt_h_inst_890
*758 byte_controller/copt_h_inst_891
*759 byte_controller/bit_controller/copt_h_inst_892
*760 byte_controller/copt_h_inst_893
*761 byte_controller/copt_h_inst_894
*762 byte_controller/bit_controller/copt_h_inst_895
*763 byte_controller/copt_h_inst_896
*764 byte_controller/bit_controller/copt_h_inst_897
*765 xofiller!SHFILL3!x1053600y180000
*766 xofiller!SHFILL1!x1063200y180000
*767 byte_controller/bit_controller/copt_h_inst_899
*768 copt_h_inst_900
*769 byte_controller/bit_controller/copt_h_inst_901
*770 byte_controller/bit_controller/copt_h_inst_902
*771 xofiller!SHFILL2!x1264800y180000
*772 xofiller!SHFILL3!x228000y208800
*773 byte_controller/copt_h_inst_905
*774 copt_h_inst_906
*775 xofiller!SHFILL3!x237600y208800
*776 xofiller!SHFILL3!x247200y208800
*777 byte_controller/copt_h_inst_908
*778 byte_controller/bit_controller/copt_h_inst_909
*779 xofiller!SHFILL2!x256800y208800
*780 xofiller!SHFILL3!x282400y208800
*781 byte_controller/bit_controller/copt_h_inst_911
*782 byte_controller/copt_h_inst_912
*783 byte_controller/bit_controller/copt_h_inst_913
*784 byte_controller/bit_controller/copt_h_inst_914
*785 byte_controller/bit_controller/copt_h_inst_915
*786 byte_controller/bit_controller/copt_h_inst_916
*787 byte_controller/bit_controller/sub_260/copt_h_inst_917
*788 byte_controller/bit_controller/copt_h_inst_918
*789 byte_controller/copt_h_inst_919
*790 byte_controller/copt_h_inst_920
*791 byte_controller/bit_controller/copt_h_inst_921
*792 byte_controller/copt_h_inst_922
*793 byte_controller/bit_controller/copt_h_inst_923
*794 byte_controller/bit_controller/copt_h_inst_924
*795 byte_controller/bit_controller/copt_h_inst_925
*796 byte_controller/bit_controller/copt_h_inst_926
*797 byte_controller/copt_h_inst_927
*798 byte_controller/bit_controller/copt_h_inst_928
*799 byte_controller/bit_controller/copt_h_inst_929
*800 xofiller!SHFILL3!x292000y208800
*801 xofiller!SHFILL3!x301600y208800
*802 byte_controller/copt_h_inst_931
*803 xofiller!SHFILL2!x311200y208800
*804 xofiller!SHFILL3!x336800y208800
*805 byte_controller/bit_controller/copt_h_inst_933
*806 xofiller!SHFILL3!x346400y208800
*807 xofiller!SHFILL3!x391200y208800
*808 xofiller!SHFILL3!x400800y208800
*809 byte_controller/bit_controller/copt_h_inst_936
*810 byte_controller/bit_controller/copt_gre_h_inst_938
*811 xofiller!SHFILL3!x410400y208800
*812 xofiller!SHFILL2!x420000y208800
*813 xofiller!SHFILL3!x650400y208800
*814 xofiller!SHFILL2!x660000y208800
*815 xofiller!SHFILL3!x708000y208800
*816 xofiller!SHFILL1!x717600y208800
*817 xofiller!SHFILL1!x756000y208800
*818 xofiller!SHFILL1!x810400y208800
*819 xofiller!SHFILL2!x839200y208800
*820 xofiller!SHFILL3!x874400y208800
*821 xofiller!SHFILL1!x884000y208800
*822 xofiller!SHFILL1!x932000y208800
*823 xofiller!SHFILL3!x989600y208800
*824 xofiller!SHFILL3!x1085600y208800
*825 xofiller!SHFILL3!x1095200y208800
*826 xofiller!SHFILL3!x1104800y208800
*827 xofiller!SHFILL2!x1114400y208800
*828 xofiller!SHFILL3!x1172000y208800
*829 xofiller!SHFILL3!x1181600y208800
*830 xofiller!SHFILL3!x1200800y208800
*831 xofiller!SHFILL3!x1268000y208800
*832 xofiller!SHFILL1!x1277600y208800
*833 xofiller!SHFILL3!x1332000y208800
*834 xofiller!SHFILL3!x1341600y208800
*835 xofiller!SHFILL3!x1351200y208800
*836 xofiller!SHFILL3!x1360800y208800
*837 xofiller!SHFILL1!x1370400y208800
*838 xofiller!SHFILL3!x180000y237600
*839 xofiller!SHFILL3!x189600y237600
*840 xofiller!SHFILL1!x308000y237600
*841 xofiller!SHFILL2!x778400y237600
*842 xofiller!SHFILL1!x810400y237600
*843 xofiller!SHFILL2!x842400y237600
*844 xofiller!SHFILL3!x900000y237600
*845 xofiller!SHFILL2!x909600y237600
*846 xofiller!SHFILL1!x960800y237600
*847 xofiller!SHFILL3!x992800y237600
*848 xofiller!SHFILL1!x1002400y237600
*849 xofiller!SHFILL3!x1024800y237600
*850 xofiller!SHFILL2!x1034400y237600
*851 xofiller!SHFILL3!x1290400y237600
*852 xofiller!SHFILL3!x1300000y237600
*853 xofiller!SHFILL3!x1309600y237600
*854 xofiller!SHFILL1!x1319200y237600
*855 xofiller!SHFILL3!x180000y266400
*856 xofiller!SHFILL3!x189600y266400
*857 xofiller!SHFILL3!x423200y266400
*858 xofiller!SHFILL3!x432800y266400
*859 xofiller!SHFILL3!x480800y266400
*860 xofiller!SHFILL2!x490400y266400
*861 xofiller!SHFILL3!x522400y266400
*862 xofiller!SHFILL3!x532000y266400
*863 xofiller!SHFILL3!x541600y266400
*864 xofiller!SHFILL3!x551200y266400
*865 xofiller!SHFILL1!x560800y266400
*866 xofiller!SHFILL3!x656800y266400
*867 xofiller!SHFILL2!x692000y266400
*868 xofiller!SHFILL3!x791200y266400
*869 xofiller!SHFILL3!x868000y266400
*870 xofiller!SHFILL3!x928800y266400
*871 xofiller!SHFILL3!x938400y266400
*872 xofiller!SHFILL3!x948000y266400
*873 xofiller!SHFILL3!x957600y266400
*874 xofiller!SHFILL3!x967200y266400
*875 xofiller!SHFILL3!x976800y266400
*876 xofiller!SHFILL3!x986400y266400
*877 xofiller!SHFILL3!x1108000y266400
*878 xofiller!SHFILL3!x1117600y266400
*879 xofiller!SHFILL3!x1127200y266400
*880 xofiller!SHFILL3!x1136800y266400
*881 xofiller!SHFILL3!x1146400y266400
*882 xofiller!SHFILL1!x1207200y266400
*883 xofiller!SHFILL3!x231200y295200
*884 xofiller!SHFILL3!x240800y295200